/*--------------------------------*- C++ -*----------------------------------*\
  =========                 |
  \\      /  F ield         | OpenFOAM: The Open Source CFD Toolbox
   \\    /   O peration     | Website:  https://openfoam.org
    \\  /    A nd           | Version:  6
     \\/     M anipulation  |
\*---------------------------------------------------------------------------*/
FoamFile
{
    version     2.0;
    format      ascii;
    class       polyBoundaryMesh;
    location    "constant/polyMesh";
    object      boundary;
}
// * * * * * * * * * * * * * * * * * * * * * * * * * * * * * * * * * * * * * //

4
(
    rocket
    {
        type            wall;
        inGroups        1(wall);
        nFaces          36952;
        startFace       350257;
    }
    inlet
    {
        type            patch;
        nFaces          30;
        startFace       387209;
    }
    outlet
    {
        type            patch;
        nFaces          36;
        startFace       387239;
    }
    fixedWalls
    {
        type            wall;
        inGroups        1(wall);
        nFaces          995;
        startFace       387275;
    }
)

// ************************************************************************* //
